LAMMPS (3 Mar 2020)

# ------------------ Initialize Simulation -----------------------
clear
units		metal
dimension	3
atom_style	full
boundary p p p
box tilt large

#read_restart restart.2 remap
fix csinfo all property/atom i_CSID
read_data data_lmpo0001.lmp fix csinfo NULL CS-Info
  triclinic box = (0 0 0) to (26.9408 24.8381 27.9874) with tilt (-16.2852 1.40754 -12.4191)
  reading atoms ...
  2025 atoms
  scanning bonds ...
  scanning angles ...
  reading bonds ...
  890 bonds
  reading angles ...
  835 angles

group ca type 1
245 atoms in group ca
group Si type 2
145 atoms in group Si
group Osicore type 3
470 atoms in group Osicore
group Osishell type 4
470 atoms in group Osishell
group Ow type 5
145 atoms in group Ow
group Ooh type 6
130 atoms in group Ooh
group Hw type 7
290 atoms in group Hw
group Hoh type 8
130 atoms in group Hoh
group Zn type 9
0 atoms in group Zn

set group ca charge 2
  245 settings made for charge
set group Si charge 4
  145 settings made for charge
set group Osicore charge 0.85
  470 settings made for charge
set group Osishell charge -2.85
  470 settings made for charge
set group Ow charge -0.82
  145 settings made for charge
set group Ooh charge -1.4
  130 settings made for charge
set group Hw charge 0.41
  290 settings made for charge
set group Hoh charge 0.4
  130 settings made for charge
set group Zn charge 2.0
  0 settings made for charge

group onlyOH type 1 2 3 4 9 5 7
1765 atoms in group onlyOH
group ohWater type 1 2 3 4 9
1330 atoms in group ohWater

group cores type 3
470 atoms in group cores
group shells type 4
470 atoms in group shells
group noWater type 1 2 3 4
1330 atoms in group noWater

# --------------- Define Interatomic Potential -------------------
pair_style  hybrid/overlay    lj/cut/coul/long 8.5  buck/coul/long 8.5 coul/long 8.5  buck/coul/long/cs  8.5  nm/cut/coul/long 8.5

pair_coeff      1      1     coul/long
pair_coeff      1      2     coul/long
pair_coeff      1      3     coul/long
pair_coeff      1      4     buck/coul/long 2152.3566 0.309227  0.099440
pair_coeff      1      5     buck/coul/long  1286.6000  0.2970  0.0000
pair_coeff      1      6     buck/coul/long 2251.0500  0.2970  0.0000
pair_coeff      1      7     coul/long
pair_coeff      1      8     coul/long
pair_coeff      1      9     coul/long

pair_coeff      2      2     coul/long
pair_coeff      2      3     coul/long
pair_coeff      2      4     buck/coul/long 1283 0.3205 10.66
pair_coeff      2      5     buck/coul/long 1283.556 0.3202 10.66
pair_coeff      2      6     buck/coul/long 983.5 0.3255 10.66
pair_coeff      2      7     coul/long
pair_coeff      2      8     coul/long
pair_coeff      2      9     coul/long

pair_coeff      3      3     buck/coul/long 0 1 0
pair_coeff      3      4     buck/coul/long/cs 0 1 0
pair_coeff      3      5     buck/coul/long 0 1 0
pair_coeff      3      6     buck/coul/long 0 1 0
pair_coeff      3      7     buck/coul/long 0 1 0
pair_coeff      3      8     buck/coul/long 0 1 0
pair_coeff      3      9     buck/coul/long 0 1 0

pair_coeff      4      4     buck/coul/long 22764.3 0.149 27.88
pair_coeff      4      5     buck/coul/long 22764.3 0.149 28.92
pair_coeff      4      6     buck/coul/long 22764.3 0.149 13.94
pair_coeff      4      7     buck/coul/long 512  0.2500  0.0000
pair_coeff      4      8     nm/cut/coul/long 0.0073 2.71 8.5 9 6
pair_coeff      4      9     buck/coul/long 499.6	0.3595	0.0

pair_coeff      5      5     lj/cut/coul/long 0.0067 3.16
pair_coeff      5      6     nm/cut/coul/long 0.0013000 4.63 8.5 9 6
pair_coeff      5      7     coul/long
pair_coeff      5      8     nm/cut/coul/long 0.055 2 8.5 9 6
pair_coeff      5      9     buck/coul/long 204.836 0.3595 0.0

pair_coeff      6      6     buck/coul/long 22764 0.149 6.97
pair_coeff      6      7     coul/long
pair_coeff      6      8     nm/cut/coul/long 0.0073 2.71 8.5 9 6
pair_coeff      6      9     buck/coul/long 370.0 0.3595 0.0

pair_coeff      7      7     coul/long
pair_coeff      7      8     coul/long
pair_coeff      7      9     coul/long

pair_coeff      8      8     coul/long
pair_coeff      8      9     coul/long

pair_coeff      9      9     coul/long

bond_style hybrid  harmonic morse

bond_coeff   1 harmonic   37.5 0
bond_coeff   3 harmonic   22.96 1.0120
bond_coeff   2 morse 7.0525     3.1749     0.942

angle_style harmonic
angle_coeff 1 1.64567 113.24
angle_coeff 2 7.74815 109.47000
angle_coeff 3 7.74815 109.47000
angle_coeff 4 7.74815 109.47000
angle_coeff 5 7.74815 141.5

kspace_style ewald 0.00005
#kspace_style pppm 1e-6
#kspace_modify order 7
# ------------------- Run Minimization,Equilibration and MD ---------------------------
reset_timestep 0

thermo 100
timestep 0.00002

write_restart restart.equil
Ewald initialization ...
  G vector (1/distance) = 0.367786
  estimated absolute RMS force accuracy = 0.000788519
  estimated relative force accuracy = 5.47596e-05
  KSpace vectors: actual max1d max3d = 2548 16 17968
                  kxmax kymax kzmax  = 10 16 16
  update every 1 steps, delay 10 steps, check yes

dump trajc2 all custom 1000000 all.dump id type x y z vx vy vz fx fy fz

fix freeze onlyOH setforce 0.0 0.0 0.0
fix nvt all nvt temp 20.0 20.0 0.0005
run 5000
Ewald initialization ...
  G vector (1/distance) = 0.367786
  estimated absolute RMS force accuracy = 0.000788519
  estimated relative force accuracy = 5.47596e-05
  KSpace vectors: actual max1d max3d = 2548 16 17968
                  kxmax kymax kzmax  = 10 16 16
  update every 1 steps, delay 10 steps, check yes
Step Temp E_pair E_mol TotEng Press
0            0   -24364.367    215.90231   -24148.464    155192.61
Averages over the last 26 of 51 rows, steps 2500 to 5000:
Temp E_pair E_mol TotEng Press
20.5606 -24950.4 126.116 -24818.9 111362
Loop time of 15.0953 on 25 procs for 5000 steps with 2025 atoms

unfix freeze
unfix nvt

fix freeze ohWater setforce 0.0 0.0 0.0
fix nvt all nvt temp 20.0 200.0 0.0005
run 15000
Ewald initialization ...
  G vector (1/distance) = 0.367786
  estimated absolute RMS force accuracy = 0.000788519
  estimated relative force accuracy = 5.47596e-05
  KSpace vectors: actual max1d max3d = 2548 16 17968
                  kxmax kymax kzmax  = 10 16 16
  update every 1 steps, delay 10 steps, check yes
Step Temp E_pair E_mol TotEng Press
5000    20.140367   -25004.254    125.92404   -24873.061    107411.11
Averages over the last 76 of 151 rows, steps 12500 to 20000:
Temp E_pair E_mol TotEng Press
155.524 -25679.4 106.934 -25531.8 61704.2
Loop time of 44.4651 on 25 procs for 15000 steps with 2025 atoms

unfix freeze
unfix nvt

neighbor 2.0 bin
comm_modify vel yes

minimize 1e-6 1e-8 10000 100000
Ewald initialization ...
  G vector (1/distance) = 0.367786
  estimated absolute RMS force accuracy = 0.000788519
  estimated relative force accuracy = 5.47596e-05
  KSpace vectors: actual max1d max3d = 2548 16 17968
                  kxmax kymax kzmax  = 10 16 16
  update every 1 steps, delay 0 steps, check yes
Step Temp E_pair E_mol TotEng Press
20000    200.13171   -25710.744    108.23109   -25550.154    61492.471
Loop time of 0.518521 on 25 procs for 88 steps with 2025 atoms

Minimization stats:
  Stopping criterion = energy tolerance
  Energy initial, next-to-last, final =
  Force two-norm initial, final = 702.547 10.3366
  Force max component initial, final = 79.7943 4.15068
  Final line search alpha, max atom move = 0.0272531 0.113119
  Iterations, force evaluations = 88 158

fix nvt all nvt temp 300 300 0.001
run 10000
Ewald initialization ...
  G vector (1/distance) = 0.367786
  estimated absolute RMS force accuracy = 0.000788519
  estimated relative force accuracy = 5.47596e-05
  KSpace vectors: actual max1d max3d = 2548 16 17968
                  kxmax kymax kzmax  = 10 16 16
  update every 1 steps, delay 10 steps, check yes
Step Temp E_pair E_mol TotEng Press
20088    200.13171   -27416.794    292.53966   -27071.896     14367.68
Averages over the last 51 of 102 rows, steps 25100 to 30088:
Temp E_pair E_mol TotEng Press
300.128 -27388.2 296.858 -27012.9 11308.1
Loop time of 29.211 on 25 procs for 10000 steps with 2025 atoms

unfix nvt

thermo 1000

compute CStemp all temp/cs cores shells
compute thermo_press_lmp all pressure thermo_temp # press for correct kinetic scalar

thermo_style custom step etotal pe ke temp press              epair evdwl ecoul elong ebond fnorm fmax vol enthalpy cellalpha cellbeta cellgamma cella cellb cellc

# output via chunk method
compute prop all property/atom i_CSID
compute cs_chunk all chunk/atom c_prop
compute csPE all pe/atom bond
compute csKE all ke/atom
fix PEoutput all ave/chunk 10000 1 10000 cs_chunk c_csPE file csPotential.txt
compute cstherm all temp/chunk cs_chunk temp internal com yes cdof 3.0
fix ave_chunk all ave/time 10000 1 10000 c_cstherm file chunk.dump mode vector
fix ke_chunk all ave/chunk 10000 1 10000 cs_chunk c_csKE file csKinetic.txt

# 2 fmsec timestep

timestep 0.0002

fix freeze ohWater setforce 0.0 0.0 0.0
fix nvt all nvt temp 20.0 200.0 0.0005
run 50000
Ewald initialization ...
  G vector (1/distance) = 0.367786
  estimated absolute RMS force accuracy = 0.000788519
  estimated relative force accuracy = 5.47596e-05
  KSpace vectors: actual max1d max3d = 2548 16 17968
                  kxmax kymax kzmax  = 10 16 16
  update every 1 steps, delay 10 steps, check yes
Step TotEng PotEng KinEng Temp Press E_pair E_vdwl E_coul E_long E_bond Fnorm Fmax Volume Enthalpy CellAlpha CellBeta CellGamma Cella Cellb Cellc
30088   -27015.053   -27093.053    78.000584    298.14169    8302.4449   -27393.063    6893.3884   -10779.099   -23507.353    277.92868    25.132273    4.0213915    18727.966   -26918.005      111.347       87.368      123.251      26.9408      29.7008      30.6514
Averages over the last 26 of 52 rows, steps 56000 to 80088:
TotEng PotEng KinEng Temp Press E_pair E_vdwl E_coul E_long E_bond Fnorm Fmax Volume Enthalpy CellAlpha CellBeta CellGamma Cella Cellb Cellc
-27056.1 -27098.4 42.2633 161.543 4779.8 -27401.4 6888.49 -10782.5 -23507.5 278.536 27.974 3.86366 18728 -27000.2 111.347 87.368 123.251 26.9408 29.7008 30.6514
Loop time of 145.836 on 25 procs for 50000 steps with 2025 atoms

unfix freeze
unfix nvt

thermo_modify temp CStemp press thermo_press_lmp

velocity all create 300 134 dist gaussian mom yes rot no bias yes temp CStemp
Ewald initialization ...
  G vector (1/distance) = 0.367786
  estimated absolute RMS force accuracy = 0.000788519
  estimated relative force accuracy = 5.47596e-05
  KSpace vectors: actual max1d max3d = 2548 16 17968
                  kxmax kymax kzmax  = 10 16 16
  update every 1 steps, delay 10 steps, check yes
velocity all scale 300 temp CStemp

# thermostating using the core/shell decoupling

fix thermoberendsen all temp/berendsen 300 300 0.4
fix nve all nve
fix_modify thermoberendsen temp CStemp
run 10000
Ewald initialization ...
  G vector (1/distance) = 0.367786
  estimated absolute RMS force accuracy = 0.000788519
  estimated relative force accuracy = 5.47596e-05
  KSpace vectors: actual max1d max3d = 2548 16 17968
                  kxmax kymax kzmax  = 10 16 16
  update every 1 steps, delay 10 steps, check yes
Step TotEng PotEng KinEng Temp Press E_pair E_vdwl E_coul E_long E_bond Fnorm Fmax Volume Enthalpy CellAlpha CellBeta CellGamma Cella Cellb Cellc
80088     -27028.5   -27088.763    60.263086    300.00999    7301.3373   -27394.106    6893.3642   -10779.871   -23507.599    279.77815    54.729805     4.793839    18727.966   -26943.154      111.347       87.368      123.251      26.9408      29.7008      30.6514
Averages over the last 6 of 12 rows, steps 86000 to 90088:
TotEng PotEng KinEng Temp Press E_pair E_vdwl E_coul E_long E_bond Fnorm Fmax Volume Enthalpy CellAlpha CellBeta CellGamma Cella Cellb Cellc
-27082.4 -27149.4 66.9979 333.538 -1417.24 -27445.4 6827.51 -10759.7 -23513.2 271.902 57.5386 4.54068 18728 -27099 111.347 87.368 123.251 26.9408 29.7008 30.6514
Loop time of 29.3348 on 25 procs for 10000 steps with 2025 atoms

unfix thermoberendsen
unfix nve

fix 10 Ow ave/histo 100 1000 500000 0 30 30  z mode vector file owdensity
fix 11 Hw ave/histo 100 1000 500000 0 30 30  z mode vector file hwdensity
fix 12 ca ave/histo 100 1000 500000 0 30 30  z mode vector file cadensity
fix 13 ca ave/histo 100 1000 500000 0 30 30  y mode vector file cadensity-Yaxis

fix nvt all nvt temp 300 300 0.02
fix_modify nvt temp CStemp
run 1000000
Ewald initialization ...
  G vector (1/distance) = 0.367786
  estimated absolute RMS force accuracy = 0.000788519
  estimated relative force accuracy = 5.47596e-05
  KSpace vectors: actual max1d max3d = 2548 16 17968
                  kxmax kymax kzmax  = 10 16 16
  update every 1 steps, delay 10 steps, check yes
Step TotEng PotEng KinEng Temp Press E_pair E_vdwl E_coul E_long E_bond Fnorm Fmax Volume Enthalpy CellAlpha CellBeta CellGamma Cella Cellb Cellc
90088   -27088.041   -27153.646    65.604606    326.60188   -1351.4341   -27446.935    6840.3266   -10774.026   -23513.235    269.81055    57.189163    4.4591019    18727.966   -27103.838      111.347       87.368      123.251      26.9408      29.7008      30.6514
Averages over the last 501 of 1002 rows, steps 591000 to 1090088:
TotEng PotEng KinEng Temp Press E_pair E_vdwl E_coul E_long E_bond Fnorm Fmax Volume Enthalpy CellAlpha CellBeta CellGamma Cella Cellb Cellc
-27117.8 -27178.1 60.2654 300.022 -5960.24 -27473.2 6797.09 -10754.8 -23515.5 272.786 59.1476 4.67776 18728 -27187.5 111.347 87.368 123.251 26.9408 29.7008 30.6514
Loop time of 2933.04 on 25 procs for 1000000 steps with 2025 atoms

unfix nvt

fix nvt all nvt temp 700 700 0.02
fix_modify nvt temp CStemp
run 1000000
Ewald initialization ...
  G vector (1/distance) = 0.367786
  estimated absolute RMS force accuracy = 0.000788519
  estimated relative force accuracy = 5.47596e-05
  KSpace vectors: actual max1d max3d = 2548 16 17968
                  kxmax kymax kzmax  = 10 16 16
  update every 1 steps, delay 10 steps, check yes
Step TotEng PotEng KinEng Temp Press E_pair E_vdwl E_coul E_long E_bond Fnorm Fmax Volume Enthalpy CellAlpha CellBeta CellGamma Cella Cellb Cellc
1090088   -27115.516   -27176.001    60.484917    301.11434    -5307.789   -27474.027    6794.6318   -10753.668   -23514.991    275.04288    61.053354     4.645927    18727.966    -27177.56      111.347       87.368      123.251      26.9408      29.7008      30.6514
Averages over the last 501 of 1002 rows, steps 1591000 to 2090088:
TotEng PotEng KinEng Temp Press E_pair E_vdwl E_coul E_long E_bond Fnorm Fmax Volume Enthalpy CellAlpha CellBeta CellGamma Cella Cellb Cellc
-26968.2 -27108.8 140.558 699.743 2182.57 -27426.2 6838.78 -10752.1 -23512.9 284.912 88.337 7.13708 18728 -26942.7 111.347 87.368 123.251 26.9408 29.7008 30.6514
Loop time of 2944.09 on 25 procs for 1000000 steps with 2025 atoms

unfix nvt

fix nvt all nvt temp 300 300 0.02
fix_modify nvt temp CStemp
run 500000
Ewald initialization ...
  G vector (1/distance) = 0.367786
  estimated absolute RMS force accuracy = 0.000788519
  estimated relative force accuracy = 5.47596e-05
  KSpace vectors: actual max1d max3d = 2548 16 17968
                  kxmax kymax kzmax  = 10 16 16
  update every 1 steps, delay 10 steps, check yes
Step TotEng PotEng KinEng Temp Press E_pair E_vdwl E_coul E_long E_bond Fnorm Fmax Volume Enthalpy CellAlpha CellBeta CellGamma Cella Cellb Cellc
2090088   -26968.036   -27112.093    144.05699    717.16435    919.88019   -27427.878    6817.5631    -10731.96   -23513.482    283.17716    88.464334    7.8178442    18727.966   -26957.283      111.347       87.368      123.251      26.9408      29.7008      30.6514
Averages over the last 251 of 502 rows, steps 2341000 to 2590088:
TotEng PotEng KinEng Temp Press E_pair E_vdwl E_coul E_long E_bond Fnorm Fmax Volume Enthalpy CellAlpha CellBeta CellGamma Cella Cellb Cellc
-27141.2 -27201.5 60.2317 299.854 -6256.55 -27495.8 6806.61 -10785.5 -23517 271.416 61.4879 4.6952 18728 -27214.4 111.347 87.368 123.251 26.9408 29.7008 30.6514
Loop time of 1502.91 on 25 procs for 500000 steps with 2025 atoms

unfix nvt

fix nvt all nvt temp 700 700 0.02
fix_modify nvt temp CStemp
run 500000
Ewald initialization ...
  G vector (1/distance) = 0.367786
  estimated absolute RMS force accuracy = 0.000788519
  estimated relative force accuracy = 5.47596e-05
  KSpace vectors: actual max1d max3d = 2548 16 17968
                  kxmax kymax kzmax  = 10 16 16
  update every 1 steps, delay 10 steps, check yes
Step TotEng PotEng KinEng Temp Press E_pair E_vdwl E_coul E_long E_bond Fnorm Fmax Volume Enthalpy CellAlpha CellBeta CellGamma Cella Cellb Cellc
2590088   -27138.728   -27200.225    61.497348    306.15456   -7320.7013   -27498.008    6810.0843   -10792.134   -23515.959    275.20508    60.374515    4.0847255    18727.966     -27224.3      111.347       87.368      123.251      26.9408      29.7008      30.6514
Averages over the last 251 of 502 rows, steps 2841000 to 3090088:
TotEng PotEng KinEng Temp Press E_pair E_vdwl E_coul E_long E_bond Fnorm Fmax Volume Enthalpy CellAlpha CellBeta CellGamma Cella Cellb Cellc
-26970.3 -27110.7 140.404 698.978 1683.77 -27428 6835.51 -10750.6 -23512.9 284.898 90.4186 7.17524 18728 -26950.6 111.347 87.368 123.251 26.9408 29.7008 30.6514
Loop time of 1470.76 on 25 procs for 500000 steps with 2025 atoms

unfix nvt

fix npt_xy all npt temp 300.0 300.0 0.02 tri 0.0 0.0 0.2 flip no
fix_modify npt_xy temp CStemp press thermo_press_lmp
run 1000000
Ewald initialization ...
  G vector (1/distance) = 0.367786
  estimated absolute RMS force accuracy = 0.000788519
  estimated relative force accuracy = 5.47596e-05
  KSpace vectors: actual max1d max3d = 2548 16 17968
                  kxmax kymax kzmax  = 10 16 16
  update every 1 steps, delay 10 steps, check yes
Step TotEng PotEng KinEng Temp Press E_pair E_vdwl E_coul E_long E_bond Fnorm Fmax Volume Enthalpy CellAlpha CellBeta CellGamma Cella Cellb Cellc
3090088   -26971.347   -27111.644    140.29615    698.44161    2629.6831   -27425.189    6848.8798   -10760.914   -23513.155    280.99796    92.319563    7.1322164    18727.966   -26940.609      111.347       87.368      123.251      26.9408      29.7008      30.6514
Averages over the last 501 of 1002 rows, steps 3591000 to 4090088:
TotEng PotEng KinEng Temp Press E_pair E_vdwl E_coul E_long E_bond Fnorm Fmax Volume Enthalpy CellAlpha CellBeta CellGamma Cella Cellb Cellc
-27145.4 -27205.7 60.2828 300.108 -72.7764 -27502.6 6858.12 -10842.5 -23518.2 275.668 63.9307 4.74398 18310.8 -27146.3 112.174 86.4392 124.475 26.9194 30.1553 30.1484
Loop time of 3103.01 on 25 procs for 1000000 steps with 2025 atoms

unfix npt_xy

# ------------------------ Dynamic Run -------------------------------

fix npt_xy all npt temp 300.0 300.0 0.02 tri 0.0 0.0 0.2 flip no
fix_modify npt_xy temp CStemp press thermo_press_lmp

dump trajc  all custom 200000 classical.dump id type x y z vx vy vz fx fy fz
run 1000000
Ewald initialization ...
  G vector (1/distance) = 0.367973
  estimated absolute RMS force accuracy = 0.000785739
  estimated relative force accuracy = 5.45666e-05
  KSpace vectors: actual max1d max3d = 2497 16 17968
                  kxmax kymax kzmax  = 10 16 16
  update every 1 steps, delay 10 steps, check yes
Step TotEng PotEng KinEng Temp Press E_pair E_vdwl E_coul E_long E_bond Fnorm Fmax Volume Enthalpy CellAlpha CellBeta CellGamma Cella Cellb Cellc
4090088   -27141.482   -27202.603    61.121366     304.2828   -2132.4119   -27501.665    6852.4694    -10824.28   -23529.854    277.86815    64.219225    4.2256746    18359.483   -27165.917    112.28178    86.454437    124.48699    26.920633    30.187418    30.233715
Averages over the last 501 of 1002 rows, steps 4591000 to 5090088:
TotEng PotEng KinEng Temp Press E_pair E_vdwl E_coul E_long E_bond Fnorm Fmax Volume Enthalpy CellAlpha CellBeta CellGamma Cella Cellb Cellc
-27145.8 -27206 60.2374 299.882 98.4764 -27503.3 6858.15 -10831.3 -23530.1 276.299 64.2299 4.72049 18307.9 -27144.7 112.302 86.252 124.407 26.896 30.1758 30.1325
Loop time of 3098.39 on 25 procs for 1000000 steps with 2025 atoms

unfix npt_xy

dump coord1 all custom 10000 travis.lammpstrj id type mass q element xu yu zu vx vy vz
dump_modify coord1 element Ca Si O O O O H H every 10000
ERROR: Illegal dump_modify command (../dump.cpp:1143)
Last command: dump_modify coord1 element Ca Si O O O O H H every 10000
